Warn : deprecated option: -p/--pipe. Use '-c "gdb_port pipe; log_output openocd.log"' instead.
Info : only one transport option; autoselect 'jtag'
adapter speed: 500 kHz
Info : clock speed 500 kHz
Info : JTAG tap: lm3s.cpu tap/device found: 0x4ba00477 (mfg: 0x23b, part: 0xba00, ver: 0x4)
Info : lm3s.cpu: hardware has 6 breakpoints, 4 watchpoints
Info : accepting 'gdb' connection from pipe
Warn : acknowledgment received, but no packet pending
undefined debug reason 6 - target needs reset
adapter speed: 500 kHz
cortex_m3 reset_config vectreset
Resetting Core Peripherals
Info : JTAG tap: lm3s.cpu tap/device found: 0x4ba00477 (mfg: 0x23b, part: 0xba00, ver: 0x4)
Warn : Only resetting the Cortex-M3 core, use a reset-init event handler to reset any peripherals or configure hardware srst support.
invalid command name "delay"
target state: halted
target halted due to debug-request, current mode: Thread 
xPSR: 0x21000000 pc: 0x00003e44 msp: 0x2000b7b0
requesting target halt and executing a soft reset
target state: halted
target halted due to debug-request, current mode: Thread 
xPSR: 0x01000000 pc: 0x01000c4c msp: 0x20000800
requesting target halt and executing a soft reset
target state: halted
target halted due to debug-request, current mode: Thread 
xPSR: 0x01000000 pc: 0x01000c4c msp: 0x20000800
requesting target halt and executing a soft reset
target state: halted
target halted due to debug-request, current mode: Thread 
xPSR: 0x01000000 pc: 0x01000c4c msp: 0x20000800
requesting target halt and executing a soft reset
target state: halted
target halted due to breakpoint, current mode: Thread 
xPSR: 0x01000000 pc: 0x01000c4c msp: 0x20000800
Error: ftdi_write_data: usb bulk write failed
Error: couldn't write MPSSE commands to FT2232
Polling target lm3s.cpu failed, GDB will be halted. Polling again in 100ms
Error: ftdi_write_data: usb bulk write failed
Error: couldn't write MPSSE commands to FT2232
Error: ftdi_write_data: usb bulk write failed
Error: couldn't write MPSSE commands to FT2232
Warn : Block read error address 0x1000c4c
Error: Target not halted
Error: failed erasing sectors 0 to 241
Error: flash_erase returned -304
Error: ftdi_write_data: usb bulk write failed
Error: couldn't write MPSSE commands to FT2232
Polling target lm3s.cpu failed, GDB will be halted. Polling again in 300ms
shutdown command invoked
shutdown command invoked
